New England/PSSE Cases/Medium/Fall116Tight.RAW
 0,    100.00, 33, 0, 0, 60.00       / August 22, 2017 10:45:49; Simulator Version 19; BuildDate 2016_7_14


    1,'1           ', 345.0000,2,   1,   1,   1,1.10617, -24.0578, 1.06000, 1.00000, 1.06000, 1.00000
    2,'2           ', 345.0000,1,   1,   1,   1,1.03021, -24.1001, 1.04000, 0.95000, 1.04000, 0.95000
    3,'3           ', 138.0000,2,   1,   1,   1,1.02000, -12.7225, 1.06000, 1.00000, 1.06000, 1.00000
    4,'4           ', 138.0000,1,   1,   1,   1,0.97689, -25.2509, 1.04000, 0.95000, 1.04000, 0.95000
    5,'5           ', 230.0000,1,   1,   1,   1,0.98393, -22.5955, 1.04000, 0.95000, 1.04000, 0.95000
    6,'6           ', 138.0000,1,   1,   1,   1,1.00856, -11.3238, 1.04000, 0.95000, 1.04000, 0.95000
    7,'7           ', 138.0000,2,   1,   1,   1,1.01125, -21.8552, 1.06000, 1.00000, 1.06000, 1.00000
    8,'8           ', 230.0000,2,   1,   1,   1,1.02000, -19.9955, 1.06000, 1.00000, 1.06000, 1.00000
    9,'9           ', 345.0000,1,   1,   1,   1,1.02659, -21.4257, 1.04000, 0.95000, 1.04000, 0.95000
   10,'10          ', 138.0000,3,   1,   1,   1,1.02000,   0.0000, 1.06000, 1.00000, 1.06000, 1.00000
   11,'11          ', 138.0000,1,   1,   1,   1,1.01667,  -1.1607, 1.04000, 0.95000, 1.04000, 0.95000
   12,'12          ', 138.0000,1,   1,   1,   1,1.01564,  -2.0855, 1.04000, 0.95000, 1.04000, 0.95000
   13,'13          ', 345.0000,1,   1,   1,   1,1.01505,  -4.4827, 1.04000, 0.95000, 1.04000, 0.95000
   14,'14          ', 230.0000,1,   1,   1,   1,1.01047, -11.9618, 1.04000, 0.95000, 1.04000, 0.95000
   15,'15          ', 230.0000,1,   1,   1,   1,1.00204, -16.1129, 1.04000, 0.95000, 1.04000, 0.95000
   16,'16          ', 138.0000,1,   1,   1,   1,1.00073, -19.4123, 1.04000, 0.95000, 1.04000, 0.95000
   17,'17          ', 138.0000,1,   1,   1,   1,0.97998, -22.1239, 1.04000, 0.95000, 1.04000, 0.95000
   18,'18          ', 138.0000,1,   1,   1,   1,0.97983, -21.4135, 1.04000, 0.95000, 1.04000, 0.95000
   19,'19          ', 138.0000,1,   1,   1,   1,0.98033, -19.7941, 1.04000, 0.95000, 1.04000, 0.95000
   20,'20          ',  69.0000,1,   1,   1,   1,0.99598, -16.9951, 1.04000, 0.95000, 1.04000, 0.95000
   21,'21          ', 138.0000,1,   1,   1,   1,0.97129, -22.8027, 1.04000, 0.95000, 1.04000, 0.95000
   22,'22          ', 230.0000,1,   1,   1,   1,0.98976,  -8.3078, 1.04000, 0.95000, 1.04000, 0.95000
   23,'23          ', 230.0000,1,   1,   1,   1,0.99345, -10.6705, 1.04000, 0.95000, 1.04000, 0.95000
   24,'24          ', 230.0000,2,   1,   1,   1,1.00422, -13.6354, 1.06000, 1.00000, 1.06000, 1.00000
   25,'25          ', 230.0000,1,   1,   1,   1,1.00533, -24.2378, 1.04000, 0.95000, 1.04000, 0.95000
   26,'26          ', 345.0000,2,   1,   1,   1,1.02000, -34.2480, 1.06000, 1.00000, 1.06000, 1.00000
   27,'27          ', 230.0000,1,   1,   1,   1,0.98846, -32.4110, 1.04000, 0.95000, 1.04000, 0.95000
   28,'28          ', 138.0000,2,   1,   1,   1,1.02000, -28.2527, 1.06000, 1.00000, 1.06000, 1.00000
   29,'29          ', 138.0000,1,   1,   1,   1,1.01551, -26.0797, 1.04000, 0.95000, 1.04000, 0.95000
   30,'30          ',  14.0000,2,   1,   1,   1,1.02000, -22.3981, 1.06000, 1.00000, 1.06000, 1.00000
   31,'31          ',  14.0000,2,   1,   1,   1,1.02000,  -6.6897, 1.06000, 1.00000, 1.06000, 1.00000
   32,'32          ',  14.0000,2,   1,   1,   1,1.02000,   2.4773, 1.06000, 1.00000, 1.06000, 1.00000
   33,'33          ',  14.0000,2,   1,   1,   1,1.00557, -16.5415, 1.06000, 1.00000, 1.06000, 1.00000
   34,'34          ',  14.0000,2,   1,   1,   1,1.02000, -13.6875, 1.06000, 1.00000, 1.06000, 1.00000
   35,'35          ',  14.0000,2,   1,   1,   1,1.02000,   2.0937, 1.06000, 1.00000, 1.06000, 1.00000
   36,'36          ',  14.0000,2,   1,   1,   1,1.02000,  -7.7276, 1.06000, 1.00000, 1.06000, 1.00000
   37,'37          ',  14.0000,2,   1,   1,   1,1.02000, -22.4705, 1.06000, 1.00000, 1.06000, 1.00000
   38,'38          ',  14.0000,2,   1,   1,   1,1.02000, -23.6123, 1.06000, 1.00000, 1.06000, 1.00000
   39,'39          ', 345.0000,1,   1,   1,   1,1.02032, -31.4051, 1.04000, 0.95000, 1.04000, 0.95000
   40,'40          ', 345.0000,1,   1,   1,   1,1.01031, -35.5059, 1.04000, 0.95000, 1.04000, 0.95000
   41,'41          ', 345.0000,1,   1,   1,   1,0.99210, -31.7318, 1.04000, 0.95000, 1.04000, 0.95000
   42,'42          ', 345.0000,1,   1,   1,   1,1.02043, -37.3603, 1.04000, 0.95000, 1.04000, 0.95000
   43,'43          ', 345.0000,1,   1,   1,   1,1.01681, -34.4809, 1.04000, 0.95000, 1.04000, 0.95000
   44,'44          ', 230.0000,1,   1,   1,   1,1.00837, -23.5668, 1.04000, 0.95000, 1.04000, 0.95000
   45,'45          ', 345.0000,1,   1,   1,   1,1.01487, -23.2956, 1.04000, 0.95000, 1.04000, 0.95000
   46,'46          ', 138.0000,1,   1,   1,   1,0.96310, -25.3968, 1.04000, 0.95000, 1.04000, 0.95000
   47,'47          ', 138.0000,1,   1,   1,   1,0.92610, -28.8803, 1.04000, 0.95000, 1.04000, 0.95000
   48,'48          ', 345.0000,1,   1,   1,   1,0.97564, -25.7603, 1.04000, 0.95000, 1.04000, 0.95000
   49,'49          ', 138.0000,2,   1,   1,   1,1.02000, -19.4395, 1.06000, 1.00000, 1.06000, 1.00000
   50,'50          ', 138.0000,1,   1,   1,   1,0.98697, -24.4350, 1.04000, 0.95000, 1.04000, 0.95000
   51,'51          ', 138.0000,1,   1,   1,   1,0.97171, -28.4500, 1.04000, 0.95000, 1.04000, 0.95000
   52,'52          ', 345.0000,2,   1,   1,   1,1.02000, -23.0580, 1.06000, 1.00000, 1.06000, 1.00000
   53,'53          ', 138.0000,1,   1,   1,   1,0.96949, -27.4927, 1.04000, 0.95000, 1.04000, 0.95000
   54,'54          ', 230.0000,2,   1,   1,   1,1.02000, -19.3985, 1.06000, 1.00000, 1.06000, 1.00000
   55,'55          ', 230.0000,1,   1,   1,   1,1.00572, -22.8235, 1.04000, 0.95000, 1.04000, 0.95000
   56,'56          ', 345.0000,2,   1,   1,   1,1.01282, -11.8262, 1.06000, 1.00000, 1.06000, 1.00000
   57,'57          ', 138.0000,1,   1,   1,   1,0.94358, -27.2477, 1.04000, 0.95000, 1.04000, 0.95000
   58,'58          ', 345.0000,1,   1,   1,   1,0.99810, -12.8847, 1.04000, 0.95000, 1.04000, 0.95000
   59,'59          ', 345.0000,1,   1,   1,   1,1.00561, -15.2494, 1.04000, 0.95000, 1.04000, 0.95000
   60,'60          ', 138.0000,1,   1,   1,   1,0.94754, -25.1972, 1.04000, 0.95000, 1.04000, 0.95000
   61,'61          ', 230.0000,1,   1,   1,   1,1.00471, -17.9434, 1.04000, 0.95000, 1.04000, 0.95000
   62,'62          ', 345.0000,1,   1,   1,   1,0.99185, -13.7447, 1.04000, 0.95000, 1.04000, 0.95000
   63,'63          ', 138.0000,1,   1,   1,   1,0.94213, -27.0145, 1.04000, 0.95000, 1.04000, 0.95000
   64,'64          ', 138.0000,1,   1,   1,   1,0.96415, -19.4844, 1.04000, 0.95000, 1.04000, 0.95000
   65,'65          ', 138.0000,1,   1,   1,   1,0.99931, -22.6792, 1.04000, 0.95000, 1.04000, 0.95000
   66,'66          ', 345.0000,1,   1,   1,   1,1.00287, -12.6811, 1.04000, 0.95000, 1.04000, 0.95000
   67,'67          ', 138.0000,1,   1,   1,   1,0.96789, -28.5273, 1.04000, 0.95000, 1.04000, 0.95000
   68,'68          ', 138.0000,1,   1,   1,   1,0.97882, -27.0504, 1.04000, 0.95000, 1.04000, 0.95000
   69,'69          ', 345.0000,2,   1,   1,   1,1.02000,  -4.6475, 1.06000, 1.00000, 1.06000, 1.00000
   70,'70          ', 138.0000,1,   1,   1,   1,1.00713,  -6.7525, 1.04000, 0.95000, 1.04000, 0.95000
   71,'71          ', 345.0000,1,   1,   1,   1,1.00956, -12.1084, 1.04000, 0.95000, 1.04000, 0.95000
   72,'72          ', 138.0000,2,   1,   1,   1,0.97323, -28.3613, 1.06000, 1.00000, 1.06000, 1.00000
   73,'73          ', 138.0000,1,   1,   1,   1,0.97136, -28.4424, 1.04000, 0.95000, 1.04000, 0.95000
   74,'74          ', 345.0000,1,   1,   1,   1,0.99085, -23.3073, 1.04000, 0.95000, 1.04000, 0.95000
   75,'75          ', 138.0000,1,   1,   1,   1,0.96702, -25.6578, 1.04000, 0.95000, 1.04000, 0.95000
   76,'76          ', 345.0000,2,   1,   1,   1,1.02000, -11.0992, 1.06000, 1.00000, 1.06000, 1.00000
   77,'77          ', 138.0000,1,   1,   1,   1,0.99370, -32.2851, 1.04000, 0.95000, 1.04000, 0.95000
   78,'78          ', 345.0000,2,   1,   1,   1,1.02250, -38.5827, 1.06000, 1.00000, 1.06000, 1.00000
   79,'79          ', 345.0000,1,   1,   1,   1,1.04020, -46.2177, 1.04000, 0.95000, 1.04000, 0.95000
   80,'80          ', 345.0000,2,   1,   1,   1,1.02070, -41.6401, 1.06000, 1.00000, 1.06000, 1.00000
   81,'81          ', 345.0000,1,   1,   1,   1,1.01683, -39.7879, 1.04000, 0.95000, 1.04000, 0.95000
   82,'82          ', 345.0000,2,   1,   1,   1,1.02000, -33.9146, 1.06000, 1.00000, 1.06000, 1.00000
   83,'83          ', 345.0000,1,   1,   1,   1,1.02064, -32.8947, 1.04000, 0.95000, 1.04000, 0.95000
   84,'84          ', 138.0000,2,   1,   1,   1,1.02000, -29.5418, 1.06000, 1.00000, 1.06000, 1.00000
   85,'85          ', 230.0000,1,   1,   1,   1,0.99206, -31.6538, 1.04000, 0.95000, 1.04000, 0.95000
   86,'86          ', 138.0000,1,   1,   1,   1,0.98565, -30.8005, 1.04000, 0.95000, 1.04000, 0.95000
   87,'87          ', 345.0000,1,   1,   1,   1,1.04481, -46.4022, 1.04000, 0.95000, 1.04000, 0.95000
   88,'88          ', 138.0000,1,   1,   1,   1,1.01103, -29.4062, 1.04000, 0.95000, 1.04000, 0.95000
   89,'89          ', 138.0000,1,   1,   1,   1,0.95292, -36.8470, 1.04000, 0.95000, 1.04000, 0.95000
   90,'90          ', 230.0000,1,   1,   1,   1,0.98285, -11.4440, 1.04000, 0.95000, 1.04000, 0.95000
   91,'91          ', 230.0000,1,   1,   1,   1,0.96880, -13.3628, 1.04000, 0.95000, 1.04000, 0.95000
   92,'92          ', 345.0000,1,   1,   1,   1,0.97531, -13.6328, 1.04000, 0.95000, 1.04000, 0.95000
   93,'93          ', 345.0000,1,   1,   1,   1,0.97692, -15.0051, 1.04000, 0.95000, 1.04000, 0.95000
   94,'94          ', 138.0000,1,   1,   1,   1,0.97959, -21.7405, 1.04000, 0.95000, 1.04000, 0.95000
   95,'95          ', 138.0000,1,   1,   1,   1,0.96893, -21.0814, 1.04000, 0.95000, 1.04000, 0.95000
   96,'96          ', 138.0000,1,   1,   1,   1,0.97016, -20.5743, 1.04000, 0.95000, 1.04000, 0.95000
   97,'97          ', 345.0000,1,   1,   1,   1,0.98322, -17.4937, 1.04000, 0.95000, 1.04000, 0.95000
   98,'98          ', 345.0000,1,   1,   1,   1,0.99522, -17.6710, 1.04000, 0.95000, 1.04000, 0.95000
   99,'99          ', 345.0000,1,   1,   1,   1,0.97506, -19.2728, 1.04000, 0.95000, 1.04000, 0.95000
  100,'100         ', 138.0000,1,   1,   1,   1,0.97900, -10.1211, 1.04000, 0.95000, 1.04000, 0.95000
  101,'101         ', 345.0000,1,   1,   1,   1,0.97377, -15.4039, 1.04000, 0.95000, 1.04000, 0.95000
  102,'102         ', 138.0000,1,   1,   1,   1,0.96784, -22.5151, 1.04000, 0.95000, 1.04000, 0.95000
  103,'103         ', 138.0000,2,   1,   1,   1,1.00663, -19.5283, 1.06000, 1.00000, 1.06000, 1.00000
  104,'104         ', 138.0000,1,   1,   1,   1,0.95980, -22.9463, 1.04000, 0.95000, 1.04000, 0.95000
  105,'105         ', 138.0000,1,   1,   1,   1,0.97089, -21.3926, 1.04000, 0.95000, 1.04000, 0.95000
  106,'106         ', 138.0000,1,   1,   1,   1,0.96031, -23.7627, 1.04000, 0.95000, 1.04000, 0.95000
  107,'107         ', 138.0000,1,   1,   1,   1,0.96237, -23.1961, 1.04000, 0.95000, 1.04000, 0.95000
  108,'108         ', 230.0000,1,   1,   1,   1,0.96120, -22.9404, 1.04000, 0.95000, 1.04000, 0.95000
  109,'109         ', 138.0000,1,   1,   1,   1,0.96174, -25.2329, 1.04000, 0.95000, 1.04000, 0.95000
  110,'110         ', 138.0000,1,   1,   1,   1,0.97139, -20.5975, 1.04000, 0.95000, 1.04000, 0.95000
  111,'111         ', 345.0000,1,   1,   1,   1,0.97422, -20.7135, 1.04000, 0.95000, 1.04000, 0.95000
  112,'112         ', 138.0000,1,   1,   1,   1,0.94541, -25.7960, 1.04000, 0.95000, 1.04000, 0.95000
  113,'113         ', 138.0000,1,   1,   1,   1,0.93422, -26.9136, 1.04000, 0.95000, 1.04000, 0.95000
  114,'114         ', 138.0000,1,   1,   1,   1,0.96669, -22.2444, 1.04000, 0.95000, 1.04000, 0.95000
  115,'115         ', 345.0000,1,   1,   1,   1,0.97900, -13.1228, 1.04000, 0.95000, 1.04000, 0.95000
  116,'116         ', 230.0000,1,   1,   1,   1,0.98350, -22.9555, 1.04000, 0.95000, 1.04000, 0.95000
  117,'117         ', 138.0000,1,   1,   1,   1,0.98267, -23.8394, 1.04000, 0.95000, 1.04000, 0.95000
  118,'118         ', 138.0000,1,   1,   1,   1,0.96856, -21.9598, 1.04000, 0.95000, 1.04000, 0.95000
  119,'119         ', 138.0000,1,   1,   1,   1,0.96438, -22.7932, 1.04000, 0.95000, 1.04000, 0.95000
  120,'120         ', 230.0000,2,   1,   1,   1,0.98941, -22.7802, 1.06000, 1.00000, 1.06000, 1.00000
  121,'121         ', 230.0000,1,   1,   1,   1,0.98448, -23.3130, 1.04000, 0.95000, 1.04000, 0.95000
  122,'122         ', 138.0000,1,   1,   1,   1,0.96376, -25.6082, 1.04000, 0.95000, 1.04000, 0.95000
  123,'123         ', 230.0000,1,   1,   1,   1,0.98932, -22.1774, 1.04000, 0.95000, 1.04000, 0.95000
  124,'124         ', 230.0000,1,   1,   1,   1,0.96007, -26.7363, 1.04000, 0.95000, 1.04000, 0.95000
  125,'125         ', 138.0000,1,   1,   1,   1,0.96047, -24.4938, 1.04000, 0.95000, 1.04000, 0.95000
  126,'126         ', 230.0000,1,   1,   1,   1,0.96747, -25.6665, 1.04000, 0.95000, 1.04000, 0.95000
  127,'127         ', 230.0000,1,   1,   1,   1,0.96616, -26.3959, 1.04000, 0.95000, 1.04000, 0.95000
  128,'128         ', 138.0000,2,   1,   1,   1,1.02000, -16.4553, 1.06000, 1.00000, 1.06000, 1.00000
  129,'129         ', 138.0000,1,   1,   1,   1,0.95680, -24.5959, 1.04000, 0.95000, 1.04000, 0.95000
  130,'130         ', 138.0000,2,   1,   1,   1,1.00806, -19.0706, 1.06000, 1.00000, 1.06000, 1.00000
  131,'131         ', 138.0000,1,   1,   1,   1,0.94870, -25.7575, 1.04000, 0.95000, 1.04000, 0.95000
  132,'132         ', 230.0000,1,   1,   1,   1,0.97794, -23.9177, 1.04000, 0.95000, 1.04000, 0.95000
  133,'133         ', 230.0000,1,   1,   1,   1,0.98041, -24.9939, 1.04000, 0.95000, 1.04000, 0.95000
  134,'134         ', 230.0000,1,   1,   1,   1,0.97160, -23.8279, 1.04000, 0.95000, 1.04000, 0.95000
  135,'135         ', 345.0000,1,   1,   1,   1,0.98458, -20.5245, 1.04000, 0.95000, 1.04000, 0.95000
  136,'136         ', 138.0000,1,   1,   1,   1,0.96330, -22.5431, 1.04000, 0.95000, 1.04000, 0.95000
  137,'137         ', 345.0000,1,   1,   1,   1,0.99003, -19.4149, 1.04000, 0.95000, 1.04000, 0.95000
  138,'138         ', 345.0000,1,   1,   1,   1,0.97348, -19.7728, 1.04000, 0.95000, 1.04000, 0.95000
  139,'139         ', 345.0000,1,   1,   1,   1,1.02267, -25.3367, 1.04000, 0.95000, 1.04000, 0.95000
  140,'140         ', 138.0000,1,   1,   1,   1,0.99167,  -8.5835, 1.04000, 0.95000, 1.04000, 0.95000
  141,'141         ', 345.0000,2,   1,   1,   1,1.02000,  -4.5954, 1.06000, 1.00000, 1.06000, 1.00000
  142,'142         ', 230.0000,1,   1,   1,   1,0.96465, -26.1377, 1.04000, 0.95000, 1.04000, 0.95000
  143,'143         ', 230.0000,2,   1,   1,   1,1.00963, -18.2870, 1.06000, 1.00000, 1.06000, 1.00000
  144,'144         ', 230.0000,1,   1,   1,   1,1.00104, -19.6385, 1.04000, 0.95000, 1.04000, 0.95000
  145,'145         ', 138.0000,1,   1,   1,   1,0.98852, -20.4126, 1.04000, 0.95000, 1.04000, 0.95000
  146,'146         ', 345.0000,2,   1,   1,   1,0.99512, -18.6308, 1.06000, 1.00000, 1.06000, 1.00000
  147,'147         ', 138.0000,1,   1,   1,   1,0.95983, -23.4394, 1.04000, 0.95000, 1.04000, 0.95000
  148,'148         ', 345.0000,1,   1,   1,   1,0.97803, -14.4224, 1.04000, 0.95000, 1.04000, 0.95000
  149,'149         ', 138.0000,2,   1,   1,   1,1.02000, -17.8819, 1.06000, 1.00000, 1.06000, 1.00000
  150,'150         ', 345.0000,1,   1,   1,   1,0.96729, -27.2112, 1.04000, 0.95000, 1.04000, 0.95000
  151,'151         ', 345.0000,1,   1,   1,   1,0.99208, -19.1916, 1.04000, 0.95000, 1.04000, 0.95000
  152,'152         ', 138.0000,1,   1,   1,   1,0.94233, -26.0045, 1.04000, 0.95000, 1.04000, 0.95000
  153,'153         ', 345.0000,1,   1,   1,   1,0.98193, -21.0188, 1.04000, 0.95000, 1.04000, 0.95000
  154,'154         ', 230.0000,1,   1,   1,   1,0.98341, -30.9355, 1.04000, 0.95000, 1.04000, 0.95000
  155,'155         ', 138.0000,1,   1,   1,   1,0.96294, -31.2247, 1.04000, 0.95000, 1.04000, 0.95000
  156,'156         ', 345.0000,1,   1,   1,   1,1.00272, -24.6638, 1.04000, 0.95000, 1.04000, 0.95000
  157,'157         ', 138.0000,2,   1,   1,   1,1.02000, -22.0951, 1.06000, 1.00000, 1.06000, 1.00000
  158,'158         ', 138.0000,1,   1,   1,   1,0.98879, -27.0930, 1.04000, 0.95000, 1.04000, 0.95000
  159,'159         ', 345.0000,1,   1,   1,   1,0.99923, -28.7992, 1.04000, 0.95000, 1.04000, 0.95000
  160,'160         ', 230.0000,1,   1,   1,   1,0.96800, -33.6299, 1.04000, 0.95000, 1.04000, 0.95000
  161,'161         ', 138.0000,1,   1,   1,   1,0.99100, -27.4115, 1.04000, 0.95000, 1.04000, 0.95000
  162,'162         ', 345.0000,2,   1,   1,   1,1.02000, -19.7822, 1.06000, 1.00000, 1.06000, 1.00000
  163,'163         ', 230.0000,1,   1,   1,   1,0.99913, -24.6022, 1.04000, 0.95000, 1.04000, 0.95000
  164,'164         ', 138.0000,1,   1,   1,   1,0.97484, -25.5741, 1.04000, 0.95000, 1.04000, 0.95000
  165,'165         ', 230.0000,2,   1,   1,   1,1.02000, -16.6607, 1.06000, 1.00000, 1.06000, 1.00000
  166,'166         ', 138.0000,2,   1,   1,   1,1.02000, -22.7397, 1.06000, 1.00000, 1.06000, 1.00000
  167,'167         ', 345.0000,1,   1,   1,   1,1.02574, -37.2088, 1.04000, 0.95000, 1.04000, 0.95000
  168,'168         ', 230.0000,1,   1,   1,   1,0.98547, -25.6038, 1.04000, 0.95000, 1.04000, 0.95000
  169,'169         ', 138.0000,1,   1,   1,   1,0.98944, -27.0367, 1.04000, 0.95000, 1.04000, 0.95000
  170,'170         ', 138.0000,1,   1,   1,   1,0.95163, -12.3438, 1.04000, 0.95000, 1.04000, 0.95000
  171,'171         ', 138.0000,1,   1,   1,   1,0.96058, -11.8787, 1.04000, 0.95000, 1.04000, 0.95000
  172,'172         ', 138.0000,1,   1,   1,   1,0.97805,  -9.0603, 1.04000, 0.95000, 1.04000, 0.95000
  173,'173         ', 138.0000,1,   1,   1,   1,0.97554,  -8.5984, 1.04000, 0.95000, 1.04000, 0.95000
  174,'174         ', 345.0000,1,   1,   1,   1,1.00340, -13.7101, 1.04000, 0.95000, 1.04000, 0.95000
  175,'175         ', 138.0000,2,   1,   1,   1,1.02000, -13.2318, 1.06000, 1.00000, 1.06000, 1.00000
  176,'176         ', 345.0000,2,   1,   1,   1,1.00457, -18.5779, 1.06000, 1.00000, 1.06000, 1.00000
  177,'177         ', 230.0000,1,   1,   1,   1,0.99570, -14.8079, 1.04000, 0.95000, 1.04000, 0.95000
  178,'178         ', 138.0000,1,   1,   1,   1,0.98207, -18.2575, 1.04000, 0.95000, 1.04000, 0.95000
  179,'179         ', 138.0000,1,   1,   1,   1,0.98111, -18.3253, 1.04000, 0.95000, 1.04000, 0.95000
  180,'180         ', 345.0000,1,   1,   1,   1,1.00336, -13.7659, 1.04000, 0.95000, 1.04000, 0.95000
  181,'181         ', 345.0000,1,   1,   1,   1,1.03043, -17.8879, 1.04000, 0.95000, 1.04000, 0.95000
  182,'182         ', 345.0000,1,   1,   1,   1,0.99222, -22.9535, 1.04000, 0.95000, 1.04000, 0.95000
  183,'183         ', 345.0000,1,   1,   1,   1,1.00414, -22.9375, 1.04000, 0.95000, 1.04000, 0.95000
  184,'184         ', 230.0000,1,   1,   1,   1,1.00980, -13.2388, 1.04000, 0.95000, 1.04000, 0.95000
  185,'185         ', 345.0000,1,   1,   1,   1,1.00493, -11.2236, 1.04000, 0.95000, 1.04000, 0.95000
  186,'186         ', 345.0000,1,   1,   1,   1,1.00098, -23.4137, 1.04000, 0.95000, 1.04000, 0.95000
  187,'187         ', 345.0000,1,   1,   1,   1,1.01644, -21.3432, 1.04000, 0.95000, 1.04000, 0.95000
  188,'188         ', 345.0000,1,   1,   1,   1,1.01580,  -3.8905, 1.04000, 0.95000, 1.04000, 0.95000
  189,'189         ', 345.0000,1,   1,   1,   1,1.01550,  -4.5299, 1.04000, 0.95000, 1.04000, 0.95000
  190,'190         ', 345.0000,1,   1,   1,   1,1.01200, -10.3056, 1.04000, 0.95000, 1.04000, 0.95000
  191,'191         ', 345.0000,1,   1,   1,   1,1.00939, -14.3818, 1.04000, 0.95000, 1.04000, 0.95000
  192,'192         ', 230.0000,1,   1,   1,   1,1.00297, -18.8570, 1.04000, 0.95000, 1.04000, 0.95000
  193,'193         ', 345.0000,1,   1,   1,   1,1.00623, -17.8526, 1.04000, 0.95000, 1.04000, 0.95000
  194,'194         ', 345.0000,1,   1,   1,   1,1.00356, -19.9333, 1.04000, 0.95000, 1.04000, 0.95000
  195,'195         ', 230.0000,1,   1,   1,   1,0.96975, -21.6362, 1.04000, 0.95000, 1.04000, 0.95000
  196,'196         ', 345.0000,1,   1,   1,   1,0.97472, -19.8496, 1.04000, 0.95000, 1.04000, 0.95000
  197,'197         ', 230.0000,1,   1,   1,   1,0.97719, -22.2434, 1.04000, 0.95000, 1.04000, 0.95000
  198,'198         ', 345.0000,1,   1,   1,   1,0.97671, -19.5905, 1.04000, 0.95000, 1.04000, 0.95000
  199,'199         ', 345.0000,1,   1,   1,   1,0.98370, -12.4684, 1.04000, 0.95000, 1.04000, 0.95000
  200,'200         ', 345.0000,1,   1,   1,   1,1.00040, -15.4394, 1.04000, 0.95000, 1.04000, 0.95000
...
0 / END OF BUS DATA, BEGIN LOAD DATA
    1,'1 ',1,   1,   1,     0.000,     0.000,     0.000,     0.000,     0.000,     0.000,   1,1
    2,'1 ',1,   1,   1,   101.139,    28.893,     0.000,     0.000,     0.000,     0.000,   1,1
    3,'1 ',1,   1,   1,     0.000,     0.000,     0.000,     0.000,     0.000,     0.000,   1,1
    4,'1 ',1,   1,   1,    73.778,    19.058,     0.000,     0.000,     0.000,     0.000,   1,1
    5,'1 ',1,   1,   1,    86.851,    32.860,     0.000,     0.000,     0.000,     0.000,   1,1
    6,'1 ',1,   1,   1,    78.696,    25.573,     0.000,     0.000,     0.000,     0.000,   1,1
    7,'1 ',1,   1,   1,   133.367,    53.508,     0.000,     0.000,     0.000,     0.000,   1,1
    8,'1 ',1,   1,   1,   106.380,    32.638,     0.000,     0.000,     0.000,     0.000,   1,1
    9,'1 ',1,   1,   1,     0.000,     0.000,     0.000,     0.000,     0.000,     0.000,   1,1
   10,'1 ',1,   1,   1,    80.417,    22.574,     0.000,     0.000,     0.000,     0.000,   1,1
   11,'1 ',1,   1,   1,     0.000,     0.000,     0.000,     0.000,     0.000,     0.000,   1,1
   12,'1 ',1,   1,   1,     2.400,     0.762,     0.000,     0.000,     0.000,     0.000,   1,1
   13,'1 ',1,   1,   1,     0.000,     0.000,     0.000,     0.000,     0.000,     0.000,   1,1
   14,'1 ',1,   1,   1,   103.763,    32.498,     0.000,     0.000,     0.000,     0.000,   1,1
   15,'1 ',1,   1,   1,   124.799,    30.225,     0.000,     0.000,     0.000,     0.000,   1,1
   16,'1 ',1,   1,   1,   146.123,    35.657,     0.000,     0.000,     0.000,     0.000,   1,1
   17,'1 ',1,   1,   1,    79.220,    24.509,     0.000,     0.000,     0.000,     0.000,   1,1
   18,'1 ',1,   1,   1,    90.243,    23.901,     0.000,     0.000,     0.000,     0.000,   1,1
   19,'1 ',1,   1,   1,    93.169,    28.839,     0.000,     0.000,     0.000,     0.000,   1,1
   20,'1 ',1,   1,   1,    90.903,    28.284,     0.000,     0.000,     0.000,     0.000,   1,1
   21,'1 ',1,   1,   1,   128.602,    33.700,     0.000,     0.000,     0.000,     0.000,   1,1
   22,'1 ',1,   1,   1,   114.810,    36.412,     0.000,     0.000,     0.000,     0.000,   1,1
   23,'1 ',1,   1,   1,    87.448,    25.483,     0.000,     0.000,     0.000,     0.000,   1,1
   24,'1 ',1,   1,   1,   104.876,    36.580,     0.000,     0.000,     0.000,     0.000,   1,1
   25,'1 ',1,   1,   1,    69.888,    16.853,     0.000,     0.000,     0.000,     0.000,   1,1
   26,'1 ',1,   1,   1,    85.949,    23.637,     0.000,     0.000,     0.000,     0.000,   1,1
   27,'1 ',1,   1,   1,    89.445,    24.752,     0.000,     0.000,     0.000,     0.000,   1,1
   28,'1 ',1,   1,   1,   130.992,    37.202,     0.000,     0.000,     0.000,     0.000,   1,1
   29,'1 ',1,   1,   1,    81.988,    22.323,     0.000,     0.000,     0.000,     0.000,   1,1
   30,'1 ',1,   1,   1,     0.000,     0.000,     0.000,     0.000,     0.000,     0.000,   1,1
   31,'1 ',1,   1,   1,     0.000,     0.000,     0.000,     0.000,     0.000,     0.000,   1,1
   32,'1 ',1,   1,   1,     0.000,     0.000,     0.000,     0.000,     0.000,     0.000,   1,1
   33,'1 ',1,   1,   1,   120.541,    31.859,     0.000,     0.000,     0.000,     0.000,   1,1
   34,'1 ',1,   1,   1,    74.862,    23.098,     0.000,     0.000,     0.000,     0.000,   1,1
   35,'1 ',1,   1,   1,     0.000,     0.000,     0.000,     0.000,     0.000,     0.000,   1,1
   36,'1 ',1,   1,   1,     0.000,     0.000,     0.000,     0.000,     0.000,     0.000,   1,1
   37,'1 ',1,   1,   1,     0.000,     0.000,     0.000,     0.000,     0.000,     0.000,   1,1
   38,'1 ',1,   1,   1,     0.000,     0.000,     0.000,     0.000,     0.000,     0.000,   1,1
   39,'1 ',1,   1,   1,    79.831,    24.251,     0.000,     0.000,     0.000,     0.000,   1,1
   40,'1 ',1,   1,   1,    81.735,    27.051,     0.000,     0.000,     0.000,     0.000,   1,1
   41,'1 ',1,   1,   1,   106.764,    28.176,     0.000,     0.000,     0.000,     0.000,   1,1
   42,'1 ',1,   1,   1,   118.299,    33.686,     0.000,     0.000,     0.000,     0.000,   1,1
   43,'1 ',1,   1,   1,   105.393,    31.874,     0.000,     0.000,     0.000,     0.000,   1,1
   44,'1 ',1,   1,   1,    75.126,    21.518,     0.000,     0.000,     0.000,     0.000,   1,1
   45,'1 ',1,   1,   1,   107.534,    29.346,     0.000,     0.000,     0.000,     0.000,   1,1
   46,'1 ',1,   1,   1,    96.550,    29.269,     0.000,     0.000,     0.000,     0.000,   1,1
   47,'1 ',1,   1,   1,    87.125,    26.363,     0.000,     0.000,     0.000,     0.000,   1,1
   48,'1 ',1,   1,   1,   104.221,    33.893,     0.000,     0.000,     0.000,     0.000,   1,1
   49,'1 ',1,   1,   1,    68.743,    23.856,     0.000,     0.000,     0.000,     0.000,   1,1
   50,'1 ',1,   1,   1,   101.208,    29.171,     0.000,     0.000,     0.000,     0.000,   1,1
   51,'1 ',1,   1,   1,    85.555,    29.919,     0.000,     0.000,     0.000,     0.000,   1,1
   52,'1 ',1,   1,   1,   108.949,    33.165,     0.000,     0.000,     0.000,     0.000,   1,1
   53,'1 ',1,   1,   1,   157.779,    40.546,     0.000,     0.000,     0.000,     0.000,   1,1
   54,'1 ',1,   1,   1,    74.314,    30.041,     0.000,     0.000,     0.000,     0.000,   1,1
   55,'1 ',1,   1,   1,   103.817,    28.817,     0.000,     0.000,     0.000,     0.000,   1,1
   56,'1 ',1,   1,   1,   115.946,    34.094,     0.000,     0.000,     0.000,     0.000,   1,1
   57,'1 ',1,   1,   1,    64.327,    21.015,     0.000,     0.000,     0.000,     0.000,   1,1
   58,'1 ',1,   1,   1,   131.280,    45.306,     0.000,     0.000,     0.000,     0.000,   1,1
   59,'1 ',1,   1,   1,    83.072,    30.829,     0.000,     0.000,     0.000,     0.000,   1,1
   60,'1 ',1,   1,   1,    94.139,    31.014,     0.000,     0.000,     0.000,     0.000,   1,1
   61,'1 ',1,   1,   1,   111.426,    36.834,     0.000,     0.000,     0.000,     0.000,   1,1
   62,'1 ',1,   1,   1,   103.810,    32.499,     0.000,     0.000,     0.000,     0.000,   1,1
   63,'1 ',1,   1,   1,    81.222,    26.798,     0.000,     0.000,     0.000,     0.000,   1,1
   64,'1 ',1,   1,   1,   166.539,    46.902,     0.000,     0.000,     0.000,     0.000,   1,1
   65,'1 ',1,   1,   1,    71.112,    22.372,     0.000,     0.000,     0.000,     0.000,   1,1
   66,'1 ',1,   1,   1,    81.734,    24.423,     0.000,     0.000,     0.000,     0.000,   1,1
   67,'1 ',1,   1,   1,    95.201,    28.785,     0.000,     0.000,     0.000,     0.000,   1,1
   68,'1 ',1,   1,   1,   113.329,    32.816,     0.000,     0.000,     0.000,     0.000,   1,1
   69,'1 ',1,   1,   1,    65.859,    23.302,     0.000,     0.000,     0.000,     0.000,   1,1
   70,'1 ',1,   1,   1,    90.392,    31.293,     0.000,     0.000,     0.000,     0.000,   1,1
   71,'1 ',1,   1,   1,    71.596,    26.141,     0.000,     0.000,     0.000,     0.000,   1,1
   72,'1 ',1,   1,   1,    63.642,    22.987,     0.000,     0.000,     0.000,     0.000,   1,1
   73,'1 ',1,   1,   1,    76.784,    27.068,     0.000,     0.000,     0.000,     0.000,   1,1
   74,'1 ',1,   1,   1,    83.919,    23.472,     0.000,     0.000,     0.000,     0.000,   1,1
   75,'1 ',1,   1,   1,    88.729,    29.742,     0.000,     0.000,     0.000,     0.000,   1,1
   76,'1 ',1,   1,   1,   117.574,    28.339,     0.000,     0.000,     0.000,     0.000,   1,1
   77,'1 ',1,   1,   1,    84.447,    24.457,     0.000,     0.000,     0.000,     0.000,   1,1
   78,'1 ',1,   1,   1,   103.330,    28.946,     0.000,     0.000,     0.000,     0.000,   1,1
   79,'1 ',1,   1,   1,   132.392,    37.155,     0.000,     0.000,     0.000,     0.000,   1,1
   80,'1 ',1,   1,   1,   109.579,    27.082,     0.000,     0.000,     0.000,     0.000,   1,1
   81,'1 ',1,   1,   1,   116.898,    29.215,     0.000,     0.000,     0.000,     0.000,   1,1
   82,'1 ',1,   1,   1,    81.705,    25.080,     0.000,     0.000,     0.000,     0.000,   1,1
   83,'1 ',1,   1,   1,    86.229,    28.104,     0.000,     0.000,     0.000,     0.000,   1,1
   84,'1 ',1,   1,   1,    67.171,    19.072,     0.000,     0.000,     0.000,     0.000,   1,1
   85,'1 ',1,   1,   1,    74.772,    23.526,     0.000,     0.000,     0.000,     0.000,   1,1
   86,'1 ',1,   1,   1,   113.062,    31.836,     0.000,     0.000,     0.000,     0.000,   1,1
   87,'1 ',1,   1,   1,   126.167,    37.429,     0.000,     0.000,     0.000,     0.000,   1,1
   88,'1 ',1,   1,   1,   100.926,    33.543,     0.000,     0.000,     0.000,     0.000,   1,1
   89,'1 ',1,   1,   1,    79.343,    24.474,     0.000,     0.000,     0.000,     0.000,   1,1
   90,'1 ',1,   1,   1,    73.476,    27.586,     0.000,     0.000,     0.000,     0.000,   1,1
   91,'1 ',1,   1,   1,    88.105,    25.714,     0.000,     0.000,     0.000,     0.000,   1,1
   92,'1 ',1,   1,   1,    83.019,    25.937,     0.000,     0.000,     0.000,     0.000,   1,1
   93,'1 ',1,   1,   1,    92.614,    25.614,     0.000,     0.000,     0.000,     0.000,   1,1
   94,'1 ',1,   1,   1,   114.475,    35.422,     0.000,     0.000,     0.000,     0.000,   1,1
   95,'1 ',1,   1,   1,   103.893,    31.028,     0.000,     0.000,     0.000,     0.000,   1,1
   96,'1 ',1,   1,   1,   118.535,    32.055,     0.000,     0.000,     0.000,     0.000,   1,1
   97,'1 ',1,   1,   1,   117.222,    33.459,     0.000,     0.000,     0.000,     0.000,   1,1
   98,'1 ',1,   1,   1,   121.634,    34.898,     0.000,     0.000,     0.000,     0.000,   1,1
   99,'1 ',1,   1,   1,   116.305,    29.530,     0.000,     0.000,     0.000,     0.000,   1,1
  100,'1 ',1,   1,   1,    92.318,    30.252,     0.000,     0.000,     0.000,     0.000,   1,1
  101,'1 ',1,   1,   1,    86.919,    28.939,     0.000,     0.000,     0.000,     0.000,   1,1
  102,'1 ',1,   1,   1,    60.229,    22.395,     0.000,     0.000,     0.000,     0.000,   1,1
  103,'1 ',1,   1,   1,   132.947,    34.873,     0.000,     0.000,     0.000,     0.000,   1,1
  104,'1 ',1,   1,   1,    98.978,    26.885,     0.000,     0.000,     0.000,     0.000,   1,1
  105,'1 ',1,   1,   1,    76.035,    22.909,     0.000,     0.000,     0.000,     0.000,   1,1
  106,'1 ',1,   1,   1,    76.138,    27.681,     0.000,     0.000,     0.000,     0.000,   1,1
  107,'1 ',1,   1,   1,    87.571,    25.507,     0.000,     0.000,     0.000,     0.000,   1,1
  108,'1 ',1,   1,   1,   140.756,    36.824,     0.000,     0.000,     0.000,     0.000,   1,1
  109,'1 ',1,   1,   1,   105.978,    34.735,     0.000,     0.000,     0.000,     0.000,   1,1
  110,'1 ',1,   1,   1,    61.275,    23.370,     0.000,     0.000,     0.000,     0.000,   1,1
  111,'1 ',1,   1,   1,   103.138,    29.706,     0.000,     0.000,     0.000,     0.000,   1,1
  112,'1 ',1,   1,   1,   136.686,    37.450,     0.000,     0.000,     0.000,     0.000,   1,1
  113,'1 ',1,   1,   1,    60.105,    21.124,     0.000,     0.000,     0.000,     0.000,   1,1
  114,'1 ',1,   1,   1,    62.037,    21.531,     0.000,     0.000,     0.000,     0.000,   1,1
  115,'1 ',1,   1,   1,    69.245,    23.926,     0.000,     0.000,     0.000,     0.000,   1,1
  116,'1 ',1,   1,   1,   123.712,    32.174,     0.000,     0.000,     0.000,     0.000,   1,1
  117,'1 ',1,   1,   1,    95.397,    26.239,     0.000,     0.000,     0.000,     0.000,   1,1
  118,'1 ',1,   1,   1,    61.339,    24.548,     0.000,     0.000,     0.000,     0.000,   1,1
  119,'1 ',1,   1,   1,   117.775,    33.650,     0.000,     0.000,     0.000,     0.000,   1,1
  120,'1 ',1,   1,   1,    75.851,    21.949,     0.000,     0.000,     0.000,     0.000,   1,1
  121,'1 ',1,   1,   1,    90.283,    24.667,     0.000,     0.000,     0.000,     0.000,   1,1
  122,'1 ',1,   1,   1,    75.790,    24.348,     0.000,     0.000,     0.000,     0.000,   1,1
  123,'1 ',1,   1,   1,   107.693,    32.797,     0.000,     0.000,     0.000,     0.000,   1,1
  124,'1 ',1,   1,   1,   109.368,    30.439,     0.000,     0.000,     0.000,     0.000,   1,1
  125,'1 ',1,   1,   1,   113.963,    32.933,     0.000,     0.000,     0.000,     0.000,   1,1
  126,'1 ',1,   1,   1,    96.195,    29.338,     0.000,     0.000,     0.000,     0.000,   1,1
  127,'1 ',1,   1,   1,   109.926,    28.057,     0.000,     0.000,     0.000,     0.000,   1,1
  128,'1 ',1,   1,   1,   118.387,    28.542,     0.000,     0.000,     0.000,     0.000,   1,1
  129,'1 ',1,   1,   1,    92.299,    26.429,     0.000,     0.000,     0.000,     0.000,   1,1
  130,'1 ',1,   1,   1,    96.933,    29.381,     0.000,     0.000,     0.000,     0.000,   1,1
  131,'1 ',1,   1,   1,   130.609,    31.336,     0.000,     0.000,     0.000,     0.000,   1,1
  132,'1 ',1,   1,   1,   121.429,    27.304,     0.000,     0.000,     0.000,     0.000,   1,1
  133,'1 ',1,   1,   1,    81.104,    24.299,     0.000,     0.000,     0.000,     0.000,   1,1
  134,'1 ',1,   1,   1,    94.367,    23.586,     0.000,     0.000,     0.000,     0.000,   1,1
  135,'1 ',1,   1,   1,    71.108,    25.013,     0.000,     0.000,     0.000,     0.000,   1,1
  136,'1 ',1,   1,   1,    86.919,    26.153,     0.000,     0.000,     0.000,     0.000,   1,1
  137,'1 ',1,   1,   1,    70.674,    27.586,     0.000,     0.000,     0.000,     0.000,   1,1
  138,'1 ',1,   1,   1,   115.806,    31.341,     0.000,     0.000,     0.000,     0.000,   1,1
  139,'1 ',1,   1,   1,   100.654,    28.446,     0.000,     0.000,     0.000,     0.000,   1,1
  140,'1 ',1,   1,   1,   130.331,    33.701,     0.000,     0.000,     0.000,     0.000,   1,1
  141,'1 ',1,   1,   1,   119.140,    32.710,     0.000,     0.000,     0.000,     0.000,   1,1
  142,'1 ',1,   1,   1,    81.256,    24.789,     0.000,     0.000,     0.000,     0.000,   1,1
  143,'1 ',1,   1,   1,   113.508,    33.278,     0.000,     0.000,     0.000,     0.000,   1,1
  144,'1 ',1,   1,   1,   133.131,    32.394,     0.000,     0.000,     0.000,     0.000,   1,1
  145,'1 ',1,   1,   1,   105.618,    30.165,     0.000,     0.000,     0.000,     0.000,   1,1
  146,'1 ',1,   1,   1,   112.442,    30.930,     0.000,     0.000,     0.000,     0.000,   1,1
  147,'1 ',1,   1,   1,    74.549,    22.032,     0.000,     0.000,     0.000,     0.000,   1,1
  148,'1 ',1,   1,   1,    84.331,    24.457,     0.000,     0.000,     0.000,     0.000,   1,1
  149,'1 ',1,   1,   1,   136.654,    32.210,     0.000,     0.000,     0.000,     0.000,   1,1
  150,'1 ',1,   1,   1,   100.290,    27.411,     0.000,     0.000,     0.000,     0.000,   1,1
  151,'1 ',1,   1,   1,    86.308,    27.378,     0.000,     0.000,     0.000,     0.000,   1,1
  152,'1 ',1,   1,   1,    71.318,    19.999,     0.000,     0.000,     0.000,     0.000,   1,1
  153,'1 ',1,   1,   1,    81.287,    27.922,     0.000,     0.000,     0.000,     0.000,   1,1
  154,'1 ',1,   1,   1,    98.699,    30.606,     0.000,     0.000,     0.000,     0.000,   1,1
  155,'1 ',1,   1,   1,    94.758,    31.174,     0.000,     0.000,     0.000,     0.000,   1,1
  156,'1 ',1,   1,   1,    96.711,    29.708,     0.000,     0.000,     0.000,     0.000,   1,1
  157,'1 ',1,   1,   1,    98.120,    32.676,     0.000,     0.000,     0.000,     0.000,   1,1
  158,'1 ',1,   1,   1,    96.740,    25.476,     0.000,     0.000,     0.000,     0.000,   1,1
  159,'1 ',1,   1,   1,   103.295,    29.787,     0.000,     0.000,     0.000,     0.000,   1,1
  160,'1 ',1,   1,   1,   120.585,    36.235,     0.000,     0.000,     0.000,     0.000,   1,1
  161,'1 ',1,   1,   1,    66.739,    20.369,     0.000,     0.000,     0.000,     0.000,   1,1
  162,'1 ',1,   1,   1,    94.137,    29.451,     0.000,     0.000,     0.000,     0.000,   1,1
  163,'1 ',1,   1,   1,   115.040,    37.975,     0.000,     0.000,     0.000,     0.000,   1,1
  164,'1 ',1,   1,   1,    88.291,    30.860,     0.000,     0.000,     0.000,     0.000,   1,1
  165,'1 ',1,   1,   1,    94.805,    27.956,     0.000,     0.000,     0.000,     0.000,   1,1
  166,'1 ',1,   1,   1,    88.847,    26.268,     0.000,     0.000,     0.000,     0.000,   1,1
  167,'1 ',1,   1,   1,    89.981,    25.663,     0.000,     0.000,     0.000,     0.000,   1,1
  168,'1 ',1,   1,   1,    59.657,    22.152,     0.000,     0.000,     0.000,     0.000,   1,1
  169,'1 ',1,   1,   1,    89.850,    29.080,     0.000,     0.000,     0.000,     0.000,   1,1
  170,'1 ',1,   1,   1,    99.287,    33.328,     0.000,     0.000,     0.000,     0.000,   1,1
  171,'1 ',1,   1,   1,    86.904,    25.402,     0.000,     0.000,     0.000,     0.000,   1,1
  172,'1 ',1,   1,   1,   100.332,    31.805,     0.000,     0.000,     0.000,     0.000,   1,1
  173,'1 ',1,   1,   1,    89.421,    27.409,     0.000,     0.000,     0.000,     0.000,   1,1
  174,'1 ',1,   1,   1,   106.494,    32.603,     0.000,     0.000,     0.000,     0.000,   1,1
  175,'1 ',1,   1,   1,    87.276,    29.992,     0.000,     0.000,     0.000,     0.000,   1,1
  176,'1 ',1,   1,   1,   104.060,    33.310,     0.000,     0.000,     0.000,     0.000,   1,1
  177,'1 ',1,   1,   1,   145.045,    49.008,     0.000,     0.000,     0.000,     0.000,   1,1
  178,'1 ',1,   1,   1,    79.902,    23.788,     0.000,     0.000,     0.000,     0.000,   1,1
  179,'1 ',1,   1,   1,     7.417,     2.274,     0.000,     0.000,     0.000,     0.000,   1,1
  180,'1 ',1,   1,   1,    10.985,     3.273,     0.000,     0.000,     0.000,     0.000,   1,1
  181,'1 ',1,   1,   1,     0.000,     0.000,     0.000,     0.000,     0.000,     0.000,   1,1
  182,'1 ',1,   1,   1,     0.000,     0.000,     0.000,     0.000,     0.000,     0.000,   1,1
  183,'1 ',1,   1,   1,     0.000,     0.000,     0.000,     0.000,     0.000,     0.000,   1,1
  184,'1 ',1,   1,   1,     0.000,     0.000,     0.000,     0.000,     0.000,     0.000,   1,1
  185,'1 ',1,   1,   1,     0.000,     0.000,     0.000,     0.000,     0.000,     0.000,   1,1
  186,'1 ',1,   1,   1,     0.000,     0.000,     0.000,     0.000,     0.000,     0.000,   1,1
  187,'1 ',1,   1,   1,     0.000,     0.000,     0.000,     0.000,     0.000,     0.000,   1,1
  188,'1 ',1,   1,   1,     0.000,     0.000,     0.000,     0.000,     0.000,     0.000,   1,1
  189,'1 ',1,   1,   1,     0.000,     0.000,     0.000,     0.000,     0.000,     0.000,   1,1
  190,'1 ',1,   1,   1,     0.000,     0.000,     0.000,     0.000,     0.000,     0.000,   1,1
  191,'1 ',1,   1,   1,     0.000,     0.000,     0.000,     0.000,     0.000,     0.000,   1,1
  192,'1 ',1,   1,   1,     0.000,     0.000,     0.000,     0.000,     0.000,     0.000,   1,1
  193,'1 ',1,   1,   1,     0.000,     0.000,     0.000,     0.000,     0.000,     0.000,   1,1
  194,'1 ',1,   1,   1,     0.000,     0.000,     0.000,     0.000,     0.000,     0.000,   1,1
  195,'1 ',1,   1,   1,     0.000,     0.000,     0.000,     0.000,     0.000,     0.000,   1,1
  196,'1 ',1,   1,   1,     0.000,     0.000,     0.000,     0.000,     0.000,     0.000,   1,1
  197,'1 ',1,   1,   1,     0.000,     0.000,     0.000,     0.000,     0.000,     0.000,   1,1
  198,'1 ',1,   1,   1,     0.000,     0.000,     0.000,     0.000,     0.000,     0.000,   1,1
  199,'1 ',1,   1,   1,     0.000,     0.000,     0.000,     0.000,     0.000,     0.000,   1,1
  200,'1 ',1,   1,   1,     0.000,     0.000,     0.000,     0.000,     0.000,     0.000,   1,1
...
0 / END OF LOAD DATA, BEGIN FIXED SHUNT DATA
0 / END OF FIXED SHUNT DATA, BEGIN GENERATOR DATA
    1,'1 ',     4.138,   -52.000,    35.000,   -52.000,1.02000,    0,   100.000,   0.00000,   1.00000,   0.00000,   0.00000,1.00000,1,  100.0,   338.000,     3.000,   1,1.0000,   0,1.0000,   0,1.0000,   0,1.0000,1, 1.0000
    3,'1 ',   411.077,    -2.125,   157.000,  -141.000,1.02000,    0,   100.000,   0.00000,   1.00000,   0.00000,   0.00000,1.00000,1,  100.0,   686.000,   298.000,   1,1.0000,   0,1.0000,   0,1.0000,   0,1.0000,0, 1.0000
    7,'1 ',   191.744,   169.000,   169.000,  -138.000,1.02000,    0,   100.000,   0.00000,   1.00000,   0.00000,   0.00000,1.00000,1,  100.0,   674.000,   139.000,   1,1.0000,   0,1.0000,   0,1.0000,   0,1.0000,0, 1.0000
    8,'1 ',   260.716,   163.760,   240.000,  -125.000,1.02000,    0,   100.000,   0.00000,   1.00000,   0.00000,   0.00000,1.00000,1,  100.0,   611.000,   189.000,   1,1.0000,   0,1.0000,   0,1.0000,   0,1.0000,0, 1.0000
   10,'1 ',  2160.527,   214.854,   594.000,  -242.000,1.02000,    0,   100.000,   0.00000,   1.00000,   0.00000,   0.00000,1.00000,1,  100.0,  2271.000,  1406.000,   1,1.0000,   0,1.0000,   0,1.0000,   0,1.0000,0, 1.0000
   24,'1 ',   397.282,   114.000,   114.000,  -108.000,1.02000,    0,   100.000,   0.00000,   1.00000,   0.00000,   0.00000,1.00000,1,  100.0,   541.000,   288.000,   1,1.0000,   0,1.0000,   0,1.0000,   0,1.0000,0, 1.0000
   26,'1 ',   165.534,    22.441,    81.000,   -66.000,1.02000,    0,   100.000,   0.00000,   1.00000,   0.00000,   0.00000,1.00000,1,  100.0,   300.000,   120.000,   1,1.0000,   0,1.0000,   0,1.0000,   0,1.0000,0, 1.0000
   28,'1 ',   297.962,    84.122,   181.000,  -120.000,1.02000,    0,   100.000,   0.00000,   1.00000,   0.00000,   0.00000,1.00000,1,  100.0,   592.000,   216.000,   1,1.0000,   0,1.0000,   0,1.0000,   0,1.0000,0, 1.0000
   30,'1 ',   172.432,   -54.974,    89.000,   -59.000,1.02000,    0,   100.000,   0.00000,   1.00000,   0.00000,   0.00000,1.00000,1,  100.0,   263.000,   125.000,   1,1.0000,   0,1.0000,   0,1.0000,   0,1.0000,0, 1.0000
   31,'1 ',   332.448,    60.131,   179.000,  -165.000,1.02000,    0,   100.000,   0.00000,   1.00000,   0.00000,   0.00000,1.00000,1,  100.0,   800.000,   241.000,   1,1.0000,   0,1.0000,   0,1.0000,   0,1.0000,0, 1.0000
   32,'1 ',   224.851,     4.861,   171.000,  -140.000,1.02000,    0,   100.000,   0.00000,   1.00000,   0.00000,   0.00000,1.00000,1,  100.0,   683.000,   163.000,   1,1.0000,   0,1.0000,   0,1.0000,   0,1.0000,0, 1.0000
   33,'1 ',   522.812,   202.000,   202.000,  -134.000,1.02000,    0,   100.000,   0.00000,   1.00000,   0.00000,   0.00000,1.00000,1,  100.0,   664.000,   379.000,   1,1.0000,   0,1.0000,   0,1.0000,   0,1.0000,0, 1.0000
   34,'1 ',   406.938,   152.007,   391.000,  -136.000,1.02000,    0,   100.000,   0.00000,   1.00000,   0.00000,   0.00000,1.00000,1,  100.0,  1237.000,   295.000,   1,1.0000,   0,1.0000,   0,1.0000,   0,1.0000,0, 1.0000
   35,'1 ',  1274.614,   331.715,   416.000,  -151.000,1.02000,    0,   100.000,   0.00000,   1.00000,   0.00000,   0.00000,1.00000,1,  100.0,  1386.000,   924.000,   1,1.0000,   0,1.0000,   0,1.0000,   0,1.0000,0, 1.0000
   36,'1 ',   193.123,   100.909,   142.000,  -117.000,1.02000,    0,   100.000,   0.00000,   1.00000,   0.00000,   0.00000,1.00000,1,  100.0,   588.000,   140.000,   1,1.0000,   0,1.0000,   0,1.0000,   0,1.0000,0, 1.0000
   37,'1 ',   137.945,    63.033,   213.000,  -116.000,1.02000,    0,   100.000,   0.00000,   1.00000,   0.00000,   0.00000,1.00000,1,  100.0,   567.000,   100.000,   1,1.0000,   0,1.0000,   0,1.0000,   0,1.0000,0, 1.0000
   38,'1 ',   286.926,    20.805,   202.000,  -178.000,1.02000,    0,   100.000,   0.00000,   1.00000,   0.00000,   0.00000,1.00000,1,  100.0,   872.000,   208.000,   1,1.0000,   0,1.0000,   0,1.0000,   0,1.0000,0, 1.0000
   49,'1 ',   441.425,   119.969,   164.000,  -129.000,1.02000,    0,   100.000,   0.00000,   1.00000,   0.00000,   0.00000,1.00000,1,  100.0,   607.000,   320.000,   1,1.0000,   0,1.0000,   0,1.0000,   0,1.0000,0, 1.0000
   52,'1 ',   223.471,   207.871,   630.000,  -166.000,1.02000,    0,   100.000,   0.00000,   1.00000,   0.00000,   0.00000,1.00000,1,  100.0,  1642.000,   162.000,   1,1.0000,   0,1.0000,   0,1.0000,   0,1.0000,0, 1.0000
   54,'1 ',   286.926,    16.858,   198.000,  -113.000,1.02000,    0,   100.000,   0.00000,   1.00000,   0.00000,   0.00000,1.00000,1,  100.0,   546.000,   208.000,   1,1.0000,   0,1.0000,   0,1.0000,   0,1.0000,0, 1.0000
   56,'1 ',   573.852,   151.000,   151.000,  -150.000,1.02000,    0,   100.000,   0.00000,   1.00000,   0.00000,   0.00000,1.00000,1,  100.0,   728.000,   416.000,   1,1.0000,   0,1.0000,   0,1.0000,   0,1.0000,0, 1.0000
   69,'1 ',   205.538,   146.644,   150.000,  -103.000,1.02000,    0,   100.000,   0.00000,   1.00000,   0.00000,   0.00000,1.00000,1,  100.0,   520.000,   149.000,   1,1.0000,   0,1.0000,   0,1.0000,   0,1.0000,0, 1.0000
   72,'1 ',   117.253,    79.000,    79.000,   -57.000,1.02000,    0,   100.000,   0.00000,   1.00000,   0.00000,   0.00000,1.00000,1,  100.0,   263.000,    85.000,   1,1.0000,   0,1.0000,   0,1.0000,   0,1.0000,0, 1.0000
   76,'1 ',   600.062,   261.278,   278.000,  -182.000,1.02000,    0,   100.000,   0.00000,   1.00000,   0.00000,   0.00000,1.00000,1,  100.0,   882.000,   435.000,   1,1.0000,   0,1.0000,   0,1.0000,   0,1.0000,0, 1.0000
   78,'1 ',   179.329,   -62.000,    52.000,   -62.000,1.02000,    0,   100.000,   0.00000,   1.00000,   0.00000,   0.00000,1.00000,1,  100.0,   288.000,   130.000,   1,1.0000,   0,1.0000,   0,1.0000,   0,1.0000,0, 1.0000
   80,'1 ',   155.878,   -67.000,   175.000,   -67.000,1.02000,    0,   100.000,   0.00000,   1.00000,   0.00000,   0.00000,1.00000,1,  100.0,   578.000,   113.000,   1,1.0000,   0,1.0000,   0,1.0000,   0,1.0000,0, 1.0000
   82,'1 ',   242.784,   -31.894,   119.000,   -58.000,1.02000,    0,   100.000,   0.00000,   1.00000,   0.00000,   0.00000,1.00000,1,  100.0,   313.000,   176.000,   1,1.0000,   0,1.0000,   0,1.0000,   0,1.0000,0, 1.0000
   84,'1 ',   233.127,    43.750,   194.000,  -180.000,1.02000,    0,   100.000,   0.00000,   1.00000,   0.00000,   0.00000,1.00000,1,  100.0,   888.000,   169.000,   1,1.0000,   0,1.0000,   0,1.0000,   0,1.0000,0, 1.0000
  103,'1 ',   286.926,   212.000,   212.000,  -188.000,1.02000,    0,   100.000,   0.00000,   1.00000,   0.00000,   0.00000,1.00000,1,  100.0,   916.000,   208.000,   1,1.0000,   0,1.0000,   0,1.0000,   0,1.0000,0, 1.0000
  120,'1 ',   222.092,   196.000,   196.000,  -172.000,1.02000,    0,   100.000,   0.00000,   1.00000,   0.00000,   0.00000,1.00000,1,  100.0,   845.000,   161.000,   1,1.0000,   0,1.0000,   0,1.0000,   0,1.0000,0, 1.0000
  128,'1 ',   248.301,    39.210,   104.000,   -76.000,1.02000,    0,   100.000,   0.00000,   1.00000,   0.00000,   0.00000,1.00000,1,  100.0,   378.000,   180.000,   1,1.0000,   0,1.0000,   0,1.0000,   0,1.0000,0, 1.0000
  130,'1 ',   158.637,    87.000,    87.000,   -56.000,1.02000,    0,   100.000,   0.00000,   1.00000,   0.00000,   0.00000,1.00000,1,  100.0,   267.000,   115.000,   1,1.0000,   0,1.0000,   0,1.0000,   0,1.0000,0, 1.0000
  141,'1 ',  1209.780,   329.497,   452.000,  -174.000,1.02000,    0,   100.000,   0.00000,   1.00000,   0.00000,   0.00000,1.00000,1,  100.0,  1691.000,   877.000,   1,1.0000,   0,1.0000,   0,1.0000,   0,1.0000,0, 1.0000
  143,'1 ',   213.815,    99.000,    99.000,   -60.000,1.02000,    0,   100.000,   0.00000,   1.00000,   0.00000,   0.00000,1.00000,1,  100.0,   303.000,   155.000,   1,1.0000,   0,1.0000,   0,1.0000,   0,1.0000,0, 1.0000
  146,'1 ',   413.836,   137.000,   137.000,  -122.000,1.02000,    0,   100.000,   0.00000,   1.00000,   0.00000,   0.00000,1.00000,1,  100.0,   607.000,   300.000,   1,1.0000,   0,1.0000,   0,1.0000,   0,1.0000,0, 1.0000
  149,'1 ',   256.578,    65.802,    73.000,   -57.000,1.02000,    0,   100.000,   0.00000,   1.00000,   0.00000,   0.00000,1.00000,1,  100.0,   274.000,   186.000,   1,1.0000,   0,1.0000,   0,1.0000,   0,1.0000,0, 1.0000
  157,'1 ',   397.282,    90.847,   173.000,  -110.000,1.02000,    0,   100.000,   0.00000,   1.00000,   0.00000,   0.00000,1.00000,1,  100.0,   521.000,   288.000,   1,1.0000,   0,1.0000,   0,1.0000,   0,1.0000,0, 1.0000
  162,'1 ',   317.274,   153.938,   176.000,  -130.000,1.02000,    0,   100.000,   0.00000,   1.00000,   0.00000,   0.00000,1.00000,1,  100.0,   636.000,   230.000,   1,1.0000,   0,1.0000,   0,1.0000,   0,1.0000,0, 1.0000
  165,'1 ',  1078.732,   156.252,   402.000,  -141.000,1.02000,    0,   100.000,   0.00000,   1.00000,   0.00000,   0.00000,1.00000,1,  100.0,  1304.000,   782.000,   1,1.0000,   0,1.0000,   0,1.0000,   0,1.0000,0, 1.0000
  166,'1 ',   382.108,   141.847,   202.000,  -168.000,1.02000,    0,   100.000,   0.00000,   1.00000,   0.00000,   0.00000,1.00000,1,  100.0,   830.000,   277.000,   1,1.0000,   0,1.0000,   0,1.0000,   0,1.0000,0, 1.0000
  175,'1 ',   288.305,   107.525,   233.000,  -128.000,1.02000,    0,   100.000,   0.00000,   1.00000,   0.00000,   0.00000,1.00000,1,  100.0,   626.000,   209.000,   1,1.0000,   0,1.0000,   0,1.0000,   0,1.0000,0, 1.0000
  176,'1 ',   118.633,    86.000,    86.000,   -56.000,1.02000,    0,   100.000,   0.00000,   1.00000,   0.00000,   0.00000,1.00000,1,  100.0,   267.000,    86.000,   1,1.0000,   0,1.0000,   0,1.0000,   0,1.0000,0, 1.0000
0 / END OF GENERATOR DATA, BEGIN BRANCH DATA
    1,     2,'1 ', 0.00598, 0.12062,1.98515, 414.51, 414.51, 414.51,  0.00000,  0.00000,  0.00000,  0.00000,1,1, 239.2,   1,1.0000,   0,1.0000,   0,1.0000,   0,1.0000
    2,    39,'1 ', 0.00868, 0.06020,0.52937, 530.03, 530.03, 530.03,  0.00000,  0.00000,  0.00000,  0.00000,1,1,  86.8,   1,1.0000,   0,1.0000,   0,1.0000,   0,1.0000
    2,   139,'1 ', 0.00339, 0.02318,0.20974, 530.03, 530.03, 530.03,  0.00000,  0.00000,  0.00000,  0.00000,1,1,  33.9,   1,1.0000,   0,1.0000,   0,1.0000,   0,1.0000
    2,   181,'1 ', 0.00761, 0.05275,0.46393, 530.03, 530.03, 530.03,  0.00000,  0.00000,  0.00000,  0.00000,1,1,  76.1,   1,1.0000,   0,1.0000,   0,1.0000,   0,1.0000
    2,   201,'1 ', 0.00274, 0.01875,0.16965, 530.03, 530.03, 530.03,  0.00000,  0.00000,  0.00000,  0.00000,1,1,  27.4,   1,1.0000,   0,1.0000,   0,1.0000,   0,1.0000
    3,    18,'1 ', 0.00383, 0.15813,0.09685, 316.20, 316.20, 316.20,  0.00000,  0.00000,  0.00000,  0.00000,1,1,  60.3,   1,1.0000,   0,1.0000,   0,1.0000,   0,1.0000
    4,    75,'1 ', 0.01684, 0.03812,0.00951, 107.32, 107.32, 107.32,  0.00000,  0.00000,  0.00000,  0.00000,1,1,   9.2,   1,1.0000,   0,1.0000,   0,1.0000,   0,1.0000
    5,     8,'1 ', 0.00296, 0.03933,0.08406, 578.83, 578.83, 578.83,  0.00000,  0.00000,  0.00000,  0.00000,1,1,  27.9,   1,1.0000,   0,1.0000,   0,1.0000,   0,1.0000
    5,   184,'1 ', 0.04502, 0.11101,0.17939, 178.87, 178.87, 178.87,  0.00000,  0.00000,  0.00000,  0.00000,1,1,  68.6,   1,1.0000,   0,1.0000,   0,1.0000,   0,1.0000
    5,   207,'1 ', 0.00112, 0.01328,0.03027, 541.39, 541.39, 541.39,  0.00000,  0.00000,  0.00000,  0.00000,1,1,   9.7,   1,1.0000,   0,1.0000,   0,1.0000,   0,1.0000
    6,     7,'1 ', 0.06200, 0.14575,0.03365, 107.32, 107.32, 107.32,  0.00000,  0.00000,  0.00000,  0.00000,1,1,  34.0,   1,1.0000,   0,1.0000,   0,1.0000,   0,1.0000
    6,    70,'1 ', 0.03364, 0.07769,0.01859, 107.32, 107.32, 107.32,  0.00000,  0.00000,  0.00000,  0.00000,1,1,  18.5,   1,1.0000,   0,1.0000,   0,1.0000,   0,1.0000
    8,    54,'1 ', 0.00033, 0.00508,0.01216, 665.28, 665.28, 665.28,  0.00000,  0.00000,  0.00000,  0.00000,1,1,   3.8,   1,1.0000,   0,1.0000,   0,1.0000,   0,1.0000
  187,     9,'1 ', 0.00684, 0.04742,0.41703, 530.03, 530.03, 530.03,  0.00000,  0.00000,  0.00000,  0.00000,1,1,  68.4,   1,1.0000,   0,1.0000,   0,1.0000,   0,1.0000
   10,    11,'1 ', 0.00032, 0.00856,0.00495, 566.01, 566.01, 566.01,  0.00000,  0.00000,  0.00000,  0.00000,1,1,   3.2,   1,1.0000,   0,1.0000,   0,1.0000,   0,1.0000
   10,    70,'1 ', 0.00580, 0.06727,0.02063, 324.83, 324.83, 324.83,  0.00000,  0.00000,  0.00000,  0.00000,1,1,  18.1,   1,1.0000,   0,1.0000,   0,1.0000,   0,1.0000
   11,   173,'1 ', 0.01667, 0.12408,0.03486, 237.35, 237.35, 237.35,  0.00000,  0.00000,  0.00000,  0.00000,1,1,  31.9,   1,1.0000,   0,1.0000,   0,1.0000,   0,1.0000
  188,    13,'1 ', 0.00011, 0.00195,0.02003,1045.73,1045.73,1045.73,  0.00000,  0.00000,  0.00000,  0.00000,1,1,   3.0,   1,1.0000,   0,1.0000,   0,1.0000,   0,1.0000
   13,   190,'1 ', 0.00085, 0.01791,0.26779,1060.07,1060.07,1060.07,  0.00000,  0.00000,  0.00000,  0.00000,1,1,  33.9,   1,1.0000,   0,1.0000,   0,1.0000,   0,1.0000
   14,    15,'1 ', 0.03611, 0.08904,0.14388, 178.87, 178.87, 178.87,  0.00000,  0.00000,  0.00000,  0.00000,1,1,  55.0,   1,1.0000,   0,1.0000,   0,1.0000,   0,1.0000
   14,   177,'1 ', 0.01882, 0.06776,0.11459, 229.46, 229.46, 229.46,  0.00000,  0.00000,  0.00000,  0.00000,1,1,  42.5,   1,1.0000,   0,1.0000,   0,1.0000,   0,1.0000
   15,    61,'1 ', 0.00413, 0.02750,0.05200, 353.36, 353.36, 353.36,  0.00000,  0.00000,  0.00000,  0.00000,1,1,  18.4,   1,1.0000,   0,1.0000,   0,1.0000,   0,1.0000
  184,    15,'1 ', 0.00343, 0.04204,0.08894, 541.39, 541.39, 541.39,  0.00000,  0.00000,  0.00000,  0.00000,1,1,  29.7,   1,1.0000,   0,1.0000,   0,1.0000,   0,1.0000
   16,   149,'1 ', 0.01423, 0.04695,0.01231, 137.68, 137.68, 137.68,  0.00000,  0.00000,  0.00000,  0.00000,1,1,  11.6,   1,1.0000,   0,1.0000,   0,1.0000,   0,1.0000
   17,    18,'1 ', 0.05670, 0.19450,0.04709, 137.68, 137.68, 137.68,  0.00000,  0.00000,  0.00000,  0.00000,1,1,  46.1,   1,1.0000,   0,1.0000,   0,1.0000,   0,1.0000
   17,   145,'1 ', 0.04673, 0.10452,0.02669, 107.32, 107.32, 107.32,  0.00000,  0.00000,  0.00000,  0.00000,1,1,  25.6,   1,1.0000,   0,1.0000,   0,1.0000,   0,1.0000
   19,    96,'1 ', 0.05510, 0.12952,0.02990, 107.32, 107.32, 107.32,  0.00000,  0.00000,  0.00000,  0.00000,1,1,  30.2,   1,1.0000,   0,1.0000,   0,1.0000,   0,1.0000
   19,   105,'1 ', 0.00053, 0.01276,0.00724, 522.03, 522.03, 522.03,  0.00000,  0.00000,  0.00000,  0.00000,1,1,   4.7,   1,1.0000,   0,1.0000,   0,1.0000,   0,1.0000
   19,   110,'1 ', 0.00509, 0.02371,0.00609, 173.53, 173.53, 173.53,  0.00000,  0.00000,  0.00000,  0.00000,1,1,   5.8,   1,1.0000,   0,1.0000,   0,1.0000,   0,1.0000
   19,   118,'1 ', 0.00064, 0.01345,0.00755, 474.70, 474.70, 474.70,  0.00000,  0.00000,  0.00000,  0.00000,1,1,   4.9,   1,1.0000,   0,1.0000,   0,1.0000,   0,1.0000
   19,   175,'1 ', 0.05620, 0.25162,0.07017, 173.53, 173.53, 173.53,  0.00000,  0.00000,  0.00000,  0.00000,1,1,  64.5,   1,1.0000,   0,1.0000,   0,1.0000,   0,1.0000
   21,   129,'1 ', 0.00698, 0.03501,0.01005, 187.39, 187.39, 187.39,  0.00000,  0.00000,  0.00000,  0.00000,1,1,   9.1,   1,1.0000,   0,1.0000,   0,1.0000,   0,1.0000
   21,   130,'1 ', 0.00738, 0.06070,0.01884, 261.01, 261.01, 261.01,  0.00000,  0.00000,  0.00000,  0.00000,1,1,  16.4,   1,1.0000,   0,1.0000,   0,1.0000,   0,1.0000
   22,    23,'1 ', 0.01398, 0.03448,0.05572, 178.87, 178.87, 178.87,  0.00000,  0.00000,  0.00000,  0.00000,1,1,  21.3,   1,1.0000,   0,1.0000,   0,1.0000,   0,1.0000
   23,    24,'1 ', 0.04301, 0.10605,0.17137, 178.87, 178.87, 178.87,  0.00000,  0.00000,  0.00000,  0.00000,1,1,  65.6,   1,1.0000,   0,1.0000,   0,1.0000,   0,1.0000
   23,    90,'1 ', 0.00690, 0.02037,0.03648, 206.75, 206.75, 206.75,  0.00000,  0.00000,  0.00000,  0.00000,1,1,  13.2,   1,1.0000,   0,1.0000,   0,1.0000,   0,1.0000
   23,    91,'1 ', 0.01279, 0.05439,0.09557, 262.53, 262.53, 262.53,  0.00000,  0.00000,  0.00000,  0.00000,1,1,  35.1,   1,1.0000,   0,1.0000,   0,1.0000,   0,1.0000
   24,   177,'1 ', 0.00208, 0.01428,0.02528, 353.36, 353.36, 353.36,  0.00000,  0.00000,  0.00000,  0.00000,1,1,   9.2,   1,1.0000,   0,1.0000,   0,1.0000,   0,1.0000
   25,   133,'1 ', 0.00613, 0.04868,0.09258, 395.58, 395.58, 395.58,  0.00000,  0.00000,  0.00000,  0.00000,1,1,  32.6,   1,1.0000,   0,1.0000,   0,1.0000,   0,1.0000
   25,   168,'1 ', 0.01816, 0.04527,0.07160, 178.87, 178.87, 178.87,  0.00000,  0.00000,  0.00000,  0.00000,1,1,  27.7,   1,1.0000,   0,1.0000,   0,1.0000,   0,1.0000
   26,    42,'1 ', 0.00714, 0.04949,0.43522, 530.03, 530.03, 530.03,  0.00000,  0.00000,  0.00000,  0.00000,1,1,  71.4,   1,1.0000,   0,1.0000,   0,1.0000,   0,1.0000
   26,    43,'1 ', 0.00133, 0.00911,0.08245, 530.03, 530.03, 530.03,  0.00000,  0.00000,  0.00000,  0.00000,1,1,  13.3,   1,1.0000,   0,1.0000,   0,1.0000,   0,1.0000
   26,   202,'1 ', 0.01045, 0.07245,0.63716, 530.03, 530.03, 530.03,  0.00000,  0.00000,  0.00000,  0.00000,1,1, 104.5,   1,1.0000,   0,1.0000,   0,1.0000,   0,1.0000
   27,   160,'1 ', 0.02217, 0.05468,0.08835, 178.87, 178.87, 178.87,  0.00000,  0.00000,  0.00000,  0.00000,1,1,  33.8,   1,1.0000,   0,1.0000,   0,1.0000,   0,1.0000
   28,    77,'1 ', 0.06656, 0.15647,0.03612, 107.32, 107.32, 107.32,  0.00000,  0.00000,  0.00000,  0.00000,1,1,  36.5,   1,1.0000,   0,1.0000,   0,1.0000,   0,1.0000
   28,    88,'1 ', 0.00116, 0.01860,0.00608, 418.29, 418.29, 418.29,  0.00000,  0.00000,  0.00000,  0.00000,1,1,   5.1,   1,1.0000,   0,1.0000,   0,1.0000,   0,1.0000
   29,    84,'1 ', 0.00955, 0.09168,0.02681, 283.00, 283.00, 283.00,  0.00000,  0.00000,  0.00000,  0.00000,1,1,  24.0,   1,1.0000,   0,1.0000,   0,1.0000,   0,1.0000
   39,    43,'1 ', 0.00577, 0.04003,0.35199, 530.03, 530.03, 530.03,  0.00000,  0.00000,  0.00000,  0.00000,1,1,  57.7,   1,1.0000,   0,1.0000,   0,1.0000,   0,1.0000
   40,    43,'1 ', 0.00360, 0.02314,0.23770, 530.03, 530.03, 530.03,  0.00000,  0.00000,  0.00000,  0.00000,1,1,  36.0,   1,1.0000,   0,1.0000,   0,1.0000,   0,1.0000
  202,    41,'1 ', 0.00271, 0.01880,0.16536, 530.03, 530.03, 530.03,  0.00000,  0.00000,  0.00000,  0.00000,1,1,  27.1,   1,1.0000,   0,1.0000,   0,1.0000,   0,1.0000
   42,   167,'1 ', 0.00687, 0.04934,0.40438, 530.03, 530.03, 530.03,  0.00000,  0.00000,  0.00000,  0.00000,1,1,  68.7,   1,1.0000,   0,1.0000,   0,1.0000,   0,1.0000
   44,    55,'1 ', 0.00742, 0.02703,0.04470, 229.46, 229.46, 229.46,  0.00000,  0.00000,  0.00000,  0.00000,1,1,  16.8,   1,1.0000,   0,1.0000,   0,1.0000,   0,1.0000
   45,    52,'1 ', 0.00089, 0.00836,0.07659, 652.53, 652.53, 652.53,  0.00000,  0.00000,  0.00000,  0.00000,1,1,  12.3,   1,1.0000,   0,1.0000,   0,1.0000,   0,1.0000
  206,    45,'1 ', 0.00042, 0.00286,0.02611, 530.03, 530.03, 530.03,  0.00000,  0.00000,  0.00000,  0.00000,1,1,   4.2,   1,1.0000,   0,1.0000,   0,1.0000,   0,1.0000
   45,   212,'1 ', 0.00103, 0.00976,0.08940, 652.53, 652.53, 652.53,  0.00000,  0.00000,  0.00000,  0.00000,1,1,  14.3,   1,1.0000,   0,1.0000,   0,1.0000,   0,1.0000
   46,    47,'1 ', 0.01683, 0.10628,0.02894, 212.01, 212.01, 212.01,  0.00000,  0.00000,  0.00000,  0.00000,1,1,  26.9,   1,1.0000,   0,1.0000,   0,1.0000,   0,1.0000
   47,    63,'1 ', 0.03810, 0.08957,0.02068, 107.32, 107.32, 107.32,  0.00000,  0.00000,  0.00000,  0.00000,1,1,  20.9,   1,1.0000,   0,1.0000,   0,1.0000,   0,1.0000
   48,   150,'1 ', 0.00352, 0.02444,0.21489, 530.03, 530.03, 530.03,  0.00000,  0.00000,  0.00000,  0.00000,1,1,  35.2,   1,1.0000,   0,1.0000,   0,1.0000,   0,1.0000
  182,    48,'1 ', 0.00342, 0.02370,0.20841, 530.03, 530.03, 530.03,  0.00000,  0.00000,  0.00000,  0.00000,1,1,  34.2,   1,1.0000,   0,1.0000,   0,1.0000,   0,1.0000
   49,    65,'1 ', 0.00180, 0.03771,0.02118, 474.70, 474.70, 474.70,  0.00000,  0.00000,  0.00000,  0.00000,1,1,  13.8,   1,1.0000,   0,1.0000,   0,1.0000,   0,1.0000
   50,    65,'1 ', 0.00526, 0.03751,0.01148, 237.35, 237.35, 237.35,  0.00000,  0.00000,  0.00000,  0.00000,1,1,  10.1,   1,1.0000,   0,1.0000,   0,1.0000,   0,1.0000
   51,    68,'1 ', 0.00406, 0.03734,0.01192, 283.00, 283.00, 283.00,  0.00000,  0.00000,  0.00000,  0.00000,1,1,  10.2,   1,1.0000,   0,1.0000,   0,1.0000,   0,1.0000
   51,    72,'1 ', 0.00071, 0.00719,0.00234, 304.04, 304.04, 304.04,  0.00000,  0.00000,  0.00000,  0.00000,1,1,   2.0,   1,1.0000,   0,1.0000,   0,1.0000,   0,1.0000
  183,    52,'1 ', 0.00205, 0.02164,0.20301, 707.51, 707.51, 707.51,  0.00000,  0.00000,  0.00000,  0.00000,1,1,  32.1,   1,1.0000,   0,1.0000,   0,1.0000,   0,1.0000
...